Ligand1


 35 38  0  0  0  0  0  0  0  0999 V2000
   38.9079   29.4078    9.7589 N   0  0  0  0  0  0  0  0  0  0  0  0
   37.8980   29.3281   10.0137 H   0  0  0  0  0  0  0  0  0  0  0  0
   39.2766   30.2819    8.6721 C   0  0  0  0  0  0  0  0  0  0  0  0
   40.4200   30.0647    7.8621 C   0  0  0  0  0  0  0  0  0  0  0  0
   40.7586   30.9704    6.8332 C   0  0  0  0  0  0  0  0  0  0  0  0
   39.9662   32.1029    6.5844 C   0  0  0  0  0  0  0  0  0  0  0  0
   38.8318   32.2893    7.3762 C   0  0  0  0  0  0  0  0  0  0  0  0
   38.5156   31.4249    8.3906 C   0  0  0  0  0  0  0  0  0  0  0  0
   37.3954   31.9652    8.9937 C   0  0  0  0  0  0  0  0  0  0  0  0
   37.0714   33.1119    8.3520 N   0  0  0  0  0  0  0  0  0  0  0  0
   37.9398   33.3021    7.3646 N   0  0  0  0  0  0  0  0  0  0  0  0
   37.8850   34.4281    6.4741 C   0  0  0  0  0  0  0  0  0  0  0  0
   38.3606   35.6884    6.8752 C   0  0  0  0  0  0  0  0  0  0  0  0
   38.3238   36.7702    5.9899 C   0  0  0  0  0  0  0  0  0  0  0  0
   37.8244   36.6000    4.6955 C   0  0  0  0  0  0  0  0  0  0  0  0
   37.3691   35.3447    4.2824 C   0  0  0  0  0  0  0  0  0  0  0  0
   37.4061   34.2606    5.1649 C   0  0  0  0  0  0  0  0  0  0  0  0
   37.7906   37.6497    3.8381 F   0  0  0  0  0  0  0  0  0  0  0  0
   39.8395   28.6262   10.5755 C   0  0  0  0  0  0  0  0  0  0  0  0
   39.7540   27.1252   10.2183 C   0  0  0  0  0  0  0  0  0  0  0  0
   38.4181   26.7912    9.5517 C   0  0  0  0  0  0  0  0  0  0  0  0
   39.9016   26.2733   11.4115 N   0  0  0  0  0  0  0  0  0  0  0  0
   39.5530   26.7683   12.2650 H   0  0  0  0  0  0  0  0  0  0  0  0
   41.5550   25.7982   11.6892 S   0  0  0  0  0  0  0  0  0  0  0  0
   41.6103   24.8126   12.8211 O   0  0  0  0  0  0  0  0  0  0  0  0
   42.0602   25.0880   10.4652 O   0  0  0  0  0  0  0  0  0  0  0  0
   44.9491   30.7940   12.7037 C   0  0  0  0  0  0  0  0  0  0  0  0
   44.1175   29.5726   12.4406 C   0  0  0  0  0  0  0  0  0  0  0  0
   44.4461   28.7115   11.3927 C   0  0  0  0  0  0  0  0  0  0  0  0
   43.7012   27.5454   11.1504 C   0  0  0  0  0  0  0  0  0  0  0  0
   42.5803   27.2401   11.9763 C   0  0  0  0  0  0  0  0  0  0  0  0
   42.2957   28.0889   13.0827 C   0  0  0  0  0  0  0  0  0  0  0  0
   43.0601   29.2474   13.2906 C   0  0  0  0  0  0  0  0  0  0  0  0
   41.1672   27.8079   14.0440 C   0  0  0  0  0  0  0  0  0  0  0  0
   44.1349   26.6671   10.0052 C   0  0  0  0  0  0  0  0  0  0  0  0
 27 28  1  0  0  0
 28 29  2  0  0  0
 29 30  1  0  0  0
 30 31  2  0  0  0
 31 32  1  0  0  0
 32 33  2  0  0  0
 32 34  1  0  0  0
 31 24  1  0  0  0
 24 25  2  0  0  0
 24 26  2  0  0  0
 24 22  1  0  0  0
 22 20  1  0  0  0
 20 21  1  0  0  0
 20 19  1  0  0  0
 19  1  1  0  0  0
  1  3  1  0  0  0
  3  4  2  0  0  0
  4  5  1  0  0  0
  5  6  2  0  0  0
  6  7  1  0  0  0
  7  8  2  0  0  0
  8  9  1  0  0  0
  9 10  2  0  0  0
 10 11  1  0  0  0
 11 12  1  0  0  0
 12 13  2  0  0  0
 13 14  1  0  0  0
 14 15  2  0  0  0
 15 16  1  0  0  0
 16 17  2  0  0  0
 15 18  1  0  0  0
 30 35  1  0  0  0
 33 28  1  0  0  0
  8  3  1  0  0  0
 11  7  1  0  0  0
 17 12  1  0  0  0
 22 23  1  0  0  0
  1  2  1  0  0  0
M  END
> <minimizedAffinity>
-10.85546

$$$$
Ligand1


 35 38  0  0  0  0  0  0  0  0999 V2000
   39.4471   30.2402   10.5158 N   0  0  0  0  0  0  0  0  0  0  0  0
   39.8753   30.6763   11.3629 H   0  0  0  0  0  0  0  0  0  0  0  0
   39.6320   30.8880    9.2401 C   0  0  0  0  0  0  0  0  0  0  0  0
   40.6440   30.5085    8.3223 C   0  0  0  0  0  0  0  0  0  0  0  0
   40.8072   31.1987    7.1014 C   0  0  0  0  0  0  0  0  0  0  0  0
   39.9660   32.2720    6.7656 C   0  0  0  0  0  0  0  0  0  0  0  0
   38.9607   32.6177    7.6703 C   0  0  0  0  0  0  0  0  0  0  0  0
   38.8166   31.9651    8.8659 C   0  0  0  0  0  0  0  0  0  0  0  0
   37.7905   32.6222    9.5184 C   0  0  0  0  0  0  0  0  0  0  0  0
   37.3528   33.6297    8.7278 N   0  0  0  0  0  0  0  0  0  0  0  0
   38.0589   33.6196    7.6024 N   0  0  0  0  0  0  0  0  0  0  0  0
   37.8501   34.5567    6.5336 C   0  0  0  0  0  0  0  0  0  0  0  0
   38.1929   35.9112    6.6851 C   0  0  0  0  0  0  0  0  0  0  0  0
   38.0072   36.8079    5.6282 C   0  0  0  0  0  0  0  0  0  0  0  0
   37.4904   36.3580    4.4100 C   0  0  0  0  0  0  0  0  0  0  0  0
   37.1668   35.0083    4.2447 C   0  0  0  0  0  0  0  0  0  0  0  0
   37.3529   34.1089    5.2992 C   0  0  0  0  0  0  0  0  0  0  0  0
   37.3121   37.2284    3.3859 F   0  0  0  0  0  0  0  0  0  0  0  0
   38.7237   28.9857   10.7359 C   0  0  0  0  0  0  0  0  0  0  0  0
   39.5537   27.7807   10.2388 C   0  0  0  0  0  0  0  0  0  0  0  0
   39.0274   27.2624    8.8990 C   0  0  0  0  0  0  0  0  0  0  0  0
   39.5313   26.6693   11.2059 N   0  0  0  0  0  0  0  0  0  0  0  0
   39.0735   26.9652   12.0992 H   0  0  0  0  0  0  0  0  0  0  0  0
   41.1280   26.0781   11.5770 S   0  0  0  0  0  0  0  0  0  0  0  0
   41.0531   25.1235   12.7340 O   0  0  0  0  0  0  0  0  0  0  0  0
   41.6347   25.2975   10.3973 O   0  0  0  0  0  0  0  0  0  0  0  0
   45.0532   30.6704   12.5832 C   0  0  0  0  0  0  0  0  0  0  0  0
   44.0903   29.5427   12.3511 C   0  0  0  0  0  0  0  0  0  0  0  0
   42.9403   29.4287   13.1335 C   0  0  0  0  0  0  0  0  0  0  0  0
   42.0094   28.4005   12.9107 C   0  0  0  0  0  0  0  0  0  0  0  0
   42.2466   27.4456   11.8794 C   0  0  0  0  0  0  0  0  0  0  0  0
   43.3872   27.6111   11.0444 C   0  0  0  0  0  0  0  0  0  0  0  0
   44.2971   28.6486   11.3003 C   0  0  0  0  0  0  0  0  0  0  0  0
   43.6826   26.6840    9.8913 C   0  0  0  0  0  0  0  0  0  0  0  0
   40.7898   28.3613   13.7950 C   0  0  0  0  0  0  0  0  0  0  0  0
 27 28  1  0  0  0
 28 29  2  0  0  0
 29 30  1  0  0  0
 30 31  2  0  0  0
 31 32  1  0  0  0
 32 33  2  0  0  0
 32 34  1  0  0  0
 31 24  1  0  0  0
 24 25  2  0  0  0
 24 26  2  0  0  0
 24 22  1  0  0  0
 22 20  1  0  0  0
 20 21  1  0  0  0
 20 19  1  0  0  0
 19  1  1  0  0  0
  1  3  1  0  0  0
  3  4  2  0  0  0
  4  5  1  0  0  0
  5  6  2  0  0  0
  6  7  1  0  0  0
  7  8  2  0  0  0
  8  9  1  0  0  0
  9 10  2  0  0  0
 10 11  1  0  0  0
 11 12  1  0  0  0
 12 13  2  0  0  0
 13 14  1  0  0  0
 14 15  2  0  0  0
 15 16  1  0  0  0
 16 17  2  0  0  0
 15 18  1  0  0  0
 30 35  1  0  0  0
 33 28  1  0  0  0
  8  3  1  0  0  0
 11  7  1  0  0  0
 17 12  1  0  0  0
 22 23  1  0  0  0
  1  2  1  0  0  0
M  END
> <minimizedAffinity>
-10.77578

$$$$
Ligand1


 35 38  0  0  0  0  0  0  0  0999 V2000
   38.8486   30.6844   10.6083 N   0  0  0  0  0  0  0  0  0  0  0  0
   38.4668   31.3032   11.3583 H   0  0  0  0  0  0  0  0  0  0  0  0
   39.1122   31.2574    9.3110 C   0  0  0  0  0  0  0  0  0  0  0  0
   40.1224   30.7697    8.4436 C   0  0  0  0  0  0  0  0  0  0  0  0
   40.3658   31.3890    7.1983 C   0  0  0  0  0  0  0  0  0  0  0  0
   39.6077   32.4977    6.7878 C   0  0  0  0  0  0  0  0  0  0  0  0
   38.6023   32.9508    7.6437 C   0  0  0  0  0  0  0  0  0  0  0  0
   38.3813   32.3664    8.8627 C   0  0  0  0  0  0  0  0  0  0  0  0
   37.3831   33.1192    9.4520 C   0  0  0  0  0  0  0  0  0  0  0  0
   37.0360   34.1144    8.6031 N   0  0  0  0  0  0  0  0  0  0  0  0
   37.7715   34.0049    7.5020 N   0  0  0  0  0  0  0  0  0  0  0  0
   37.6559   34.9018    6.3857 C   0  0  0  0  0  0  0  0  0  0  0  0
   38.1117   36.2282    6.4763 C   0  0  0  0  0  0  0  0  0  0  0  0
   38.0155   37.0835    5.3742 C   0  0  0  0  0  0  0  0  0  0  0  0
   37.4761   36.6189    4.1713 C   0  0  0  0  0  0  0  0  0  0  0  0
   37.0401   35.2950    4.0671 C   0  0  0  0  0  0  0  0  0  0  0  0
   37.1364   34.4369    5.1670 C   0  0  0  0  0  0  0  0  0  0  0  0
   37.3847   37.4491    3.1034 F   0  0  0  0  0  0  0  0  0  0  0  0
   39.0980   29.2923   10.9900 C   0  0  0  0  0  0  0  0  0  0  0  0
   40.1925   29.2106   12.0778 C   0  0  0  0  0  0  0  0  0  0  0  0
   41.5272   29.7505   11.5603 C   0  0  0  0  0  0  0  0  0  0  0  0
   40.4001   27.8260   12.5370 N   0  0  0  0  0  0  0  0  0  0  0  0
   41.3087   27.7381   13.0487 H   0  0  0  0  0  0  0  0  0  0  0  0
   40.3973   26.6817   11.2228 S   0  0  0  0  0  0  0  0  0  0  0  0
   39.8219   25.3773   11.6948 O   0  0  0  0  0  0  0  0  0  0  0  0
   39.4880   27.1964   10.1429 O   0  0  0  0  0  0  0  0  0  0  0  0
   46.0837   26.0972    9.0247 C   0  0  0  0  0  0  0  0  0  0  0  0
   44.6899   26.2545    9.5588 C   0  0  0  0  0  0  0  0  0  0  0  0
   43.7140   26.8981    8.7966 C   0  0  0  0  0  0  0  0  0  0  0  0
   42.3953   27.0261    9.2636 C   0  0  0  0  0  0  0  0  0  0  0  0
   42.0468   26.5052   10.5438 C   0  0  0  0  0  0  0  0  0  0  0  0
   43.0322   25.7918   11.2824 C   0  0  0  0  0  0  0  0  0  0  0  0
   44.3404   25.6880   10.7849 C   0  0  0  0  0  0  0  0  0  0  0  0
   42.7338   25.1549   12.6172 C   0  0  0  0  0  0  0  0  0  0  0  0
   41.4042   27.7248    8.3689 C   0  0  0  0  0  0  0  0  0  0  0  0
 27 28  1  0  0  0
 28 29  2  0  0  0
 29 30  1  0  0  0
 30 31  2  0  0  0
 31 32  1  0  0  0
 32 33  2  0  0  0
 32 34  1  0  0  0
 31 24  1  0  0  0
 24 25  2  0  0  0
 24 26  2  0  0  0
 24 22  1  0  0  0
 22 20  1  0  0  0
 20 21  1  0  0  0
 20 19  1  0  0  0
 19  1  1  0  0  0
  1  3  1  0  0  0
  3  4  2  0  0  0
  4  5  1  0  0  0
  5  6  2  0  0  0
  6  7  1  0  0  0
  7  8  2  0  0  0
  8  9  1  0  0  0
  9 10  2  0  0  0
 10 11  1  0  0  0
 11 12  1  0  0  0
 12 13  2  0  0  0
 13 14  1  0  0  0
 14 15  2  0  0  0
 15 16  1  0  0  0
 16 17  2  0  0  0
 15 18  1  0  0  0
 30 35  1  0  0  0
 33 28  1  0  0  0
  8  3  1  0  0  0
 11  7  1  0  0  0
 17 12  1  0  0  0
 22 23  1  0  0  0
  1  2  1  0  0  0
M  END
> <minimizedAffinity>
-10.31791

$$$$
Ligand2


 51 55  0  0  0  0  0  0  0  0999 V2000
   41.6003   30.7161    5.7349 C   0  0  0  0  0  0  0  0  0  0  0  0
   40.6241   31.2040    6.7639 C   0  0  0  0  0  0  0  0  0  0  0  0
   40.4744   30.5061    7.9892 C   0  0  0  0  0  0  0  0  0  0  0  0
   39.5263   30.9239    8.9565 C   0  0  0  0  0  0  0  0  0  0  0  0
   38.7418   32.0370    8.6299 C   0  0  0  0  0  0  0  0  0  0  0  0
   37.6980   32.6626    9.2869 C   0  0  0  0  0  0  0  0  0  0  0  0
   37.2326   33.6629    8.5020 N   0  0  0  0  0  0  0  0  0  0  0  0
   37.9555   33.6928    7.3879 N   0  0  0  0  0  0  0  0  0  0  0  0
   38.8762   32.7082    7.4450 C   0  0  0  0  0  0  0  0  0  0  0  0
   39.7946   32.3062    6.4739 C   0  0  0  0  0  0  0  0  0  0  0  0
   37.7218   34.6224    6.3181 C   0  0  0  0  0  0  0  0  0  0  0  0
   38.2773   35.9078    6.3555 C   0  0  0  0  0  0  0  0  0  0  0  0
   38.0429   36.8017    5.3115 C   0  0  0  0  0  0  0  0  0  0  0  0
   37.2452   36.4287    4.2262 C   0  0  0  0  0  0  0  0  0  0  0  0
   36.6552   35.1522    4.1750 C   0  0  0  0  0  0  0  0  0  0  0  0
   36.9032   34.2571    5.2374 C   0  0  0  0  0  0  0  0  0  0  0  0
   35.8008   34.7025    3.0391 C   0  0  0  0  0  0  0  0  0  0  0  0
   36.1947   33.7286    2.3418 O   0  0  0  0  0  0  0  0  0  0  0  0
   34.4953   35.2552    2.7630 N   0  0  0  0  0  0  0  0  0  0  0  0
   33.3636   34.3755    2.5015 C   0  0  0  0  0  0  0  0  0  0  0  0
   32.2063   35.2854    2.1227 C   0  0  0  0  0  0  0  0  0  0  0  0
   32.8509   36.5899    1.6718 C   0  0  0  0  0  0  0  0  0  0  0  0
   34.2030   36.6386    2.3863 C   0  0  0  0  0  0  0  0  0  0  0  0
   35.2664   37.2274    1.4924 C   0  0  0  0  0  0  0  0  0  0  0  0
   36.3629   37.6118    1.9822 O   0  0  0  0  0  0  0  0  0  0  0  0
   35.0644   37.2864    0.0795 N   0  0  0  0  0  0  0  0  0  0  0  0
   34.1608   36.9853   -0.3474 H   0  0  0  0  0  0  0  0  0  0  0  0
   35.8166   37.6584   -0.5415 H   0  0  0  0  0  0  0  0  0  0  0  0
   39.3215   30.2250   10.2016 N   0  0  0  0  0  0  0  0  0  0  0  0
   38.4446   30.4125   10.7380 H   0  0  0  0  0  0  0  0  0  0  0  0
   40.2382   29.2384   10.7842 C   0  0  0  0  0  0  0  0  0  0  0  0
   39.8351   27.7614   10.4564 C   0  0  0  0  0  0  0  0  0  0  0  0
   40.7033   27.2722    9.4612 O   0  0  0  0  0  0  0  0  0  0  0  0
   40.4937   27.7388    8.6097 H   0  0  0  0  0  0  0  0  0  0  0  0
   38.3627   27.7764    9.9301 C   0  0  0  0  0  0  0  0  0  0  0  0
   37.7544   26.5508   10.1441 F   0  0  0  0  0  0  0  0  0  0  0  0
   38.3123   28.0885    8.5856 F   0  0  0  0  0  0  0  0  0  0  0  0
   37.6169   28.7455   10.5835 F   0  0  0  0  0  0  0  0  0  0  0  0
   40.0296   26.9048   11.7668 C   0  0  0  0  0  0  0  0  0  0  0  0
   41.4386   26.4554   12.3407 C   0  0  0  0  0  0  0  0  0  0  0  0
   41.2845   25.9626   13.7987 C   0  0  0  0  0  0  0  0  0  0  0  0
   42.0047   25.3263   11.4413 C   0  0  0  0  0  0  0  0  0  0  0  0
   42.4451   27.6601   12.3731 C   0  0  0  0  0  0  0  0  0  0  0  0
   42.4817   28.5600   13.4756 C   0  0  0  0  0  0  0  0  0  0  0  0
   43.3524   29.6497   13.5059 C   0  0  0  0  0  0  0  0  0  0  0  0
   44.2402   29.8653   12.4624 C   0  0  0  0  0  0  0  0  0  0  0  0
   44.2882   28.9728   11.3981 C   0  0  0  0  0  0  0  0  0  0  0  0
   43.4266   27.8564   11.3468 C   0  0  0  0  0  0  0  0  0  0  0  0
   43.3380   30.4987   14.5634 F   0  0  0  0  0  0  0  0  0  0  0  0
   43.5540   26.9233   10.3054 O   0  0  0  0  0  0  0  0  0  0  0  0
   44.7848   26.4169    9.7973 C   0  0  0  0  0  0  0  0  0  0  0  0
  1  2  1  0  0  0
  2  3  2  0  0  0
  3  4  1  0  0  0
  4  5  2  0  0  0
  5  6  1  0  0  0
  6  7  2  0  0  0
  7  8  1  0  0  0
  8  9  1  0  0  0
  9 10  2  0  0  0
  8 11  1  0  0  0
 11 12  2  0  0  0
 12 13  1  0  0  0
 13 14  2  0  0  0
 14 15  1  0  0  0
 15 16  2  0  0  0
 15 17  1  0  0  0
 17 18  2  0  0  0
 17 19  1  0  0  0
 19 20  1  0  0  0
 20 21  1  0  0  0
 21 22  1  0  0  0
 22 23  1  0  0  0
 23 24  1  0  0  0
 24 25  2  0  0  0
 24 26  1  0  0  0
  4 29  1  0  0  0
 29 31  1  0  0  0
 31 32  1  0  0  0
 32 39  1  0  0  0
 39 40  1  0  0  0
 40 41  1  0  0  0
 40 42  1  0  0  0
 40 43  1  0  0  0
 43 44  2  0  0  0
 44 45  1  0  0  0
 45 46  2  0  0  0
 46 47  1  0  0  0
 47 48  2  0  0  0
 48 50  1  0  0  0
 50 51  1  0  0  0
 45 49  1  0  0  0
 32 35  1  0  0  0
 35 36  1  0  0  0
 35 37  1  0  0  0
 35 38  1  0  0  0
 32 33  1  0  0  0
 10  2  1  0  0  0
  9  5  1  0  0  0
 16 11  1  0  0  0
 23 19  1  0  0  0
 48 43  1  0  0  0
 26 27  1  0  0  0
 26 28  1  0  0  0
 29 30  1  0  0  0
 33 34  1  0  0  0
M  END
> <minimizedAffinity>
-9.80907

$$$$
Ligand2


 51 55  0  0  0  0  0  0  0  0999 V2000
   41.0289   31.3709    5.6818 C   0  0  0  0  0  0  0  0  0  0  0  0
   39.9433   31.9104    6.5653 C   0  0  0  0  0  0  0  0  0  0  0  0
   39.5102   31.1681    7.6932 C   0  0  0  0  0  0  0  0  0  0  0  0
   38.4557   31.6380    8.5157 C   0  0  0  0  0  0  0  0  0  0  0  0
   37.8598   32.8498    8.1448 C   0  0  0  0  0  0  0  0  0  0  0  0
   36.7874   33.5538    8.6615 C   0  0  0  0  0  0  0  0  0  0  0  0
   36.5725   34.6424    7.8854 N   0  0  0  0  0  0  0  0  0  0  0  0
   37.4784   34.6503    6.9139 N   0  0  0  0  0  0  0  0  0  0  0  0
   38.2681   33.5652    7.0521 C   0  0  0  0  0  0  0  0  0  0  0  0
   39.2958   33.1144    6.2222 C   0  0  0  0  0  0  0  0  0  0  0  0
   37.5329   35.6577    5.8915 C   0  0  0  0  0  0  0  0  0  0  0  0
   38.4147   36.7405    6.0028 C   0  0  0  0  0  0  0  0  0  0  0  0
   38.4582   37.7126    5.0043 C   0  0  0  0  0  0  0  0  0  0  0  0
   37.6175   37.6221    3.8914 C   0  0  0  0  0  0  0  0  0  0  0  0
   36.7054   36.5580    3.7664 C   0  0  0  0  0  0  0  0  0  0  0  0
   36.6740   35.5801    4.7834 C   0  0  0  0  0  0  0  0  0  0  0  0
   35.7906   36.4116    2.5983 C   0  0  0  0  0  0  0  0  0  0  0  0
   36.1412   36.9134    1.4960 O   0  0  0  0  0  0  0  0  0  0  0  0
   34.5751   35.6325    2.6372 N   0  0  0  0  0  0  0  0  0  0  0  0
   34.2729   34.6857    1.5718 C   0  0  0  0  0  0  0  0  0  0  0  0
   32.8780   34.1577    1.8657 C   0  0  0  0  0  0  0  0  0  0  0  0
   32.2362   35.1996    2.7729 C   0  0  0  0  0  0  0  0  0  0  0  0
   33.4039   35.8970    3.4737 C   0  0  0  0  0  0  0  0  0  0  0  0
   33.1346   37.3729    3.6348 C   0  0  0  0  0  0  0  0  0  0  0  0
   33.7565   38.0379    4.5071 O   0  0  0  0  0  0  0  0  0  0  0  0
   32.2275   38.0373    2.7537 N   0  0  0  0  0  0  0  0  0  0  0  0
   31.6926   37.5058    2.0320 H   0  0  0  0  0  0  0  0  0  0  0  0
   32.0715   39.0658    2.8416 H   0  0  0  0  0  0  0  0  0  0  0  0
   37.9650   30.9000    9.6537 N   0  0  0  0  0  0  0  0  0  0  0  0
   36.9667   31.0269    9.9350 H   0  0  0  0  0  0  0  0  0  0  0  0
   38.7475   29.9513   10.4543 C   0  0  0  0  0  0  0  0  0  0  0  0
   38.6510   28.4806    9.9257 C   0  0  0  0  0  0  0  0  0  0  0  0
   39.1287   28.4501    8.6013 O   0  0  0  0  0  0  0  0  0  0  0  0
   38.4726   28.9220    8.0237 H   0  0  0  0  0  0  0  0  0  0  0  0
   37.1459   28.0583    9.9679 C   0  0  0  0  0  0  0  0  0  0  0  0
   36.4789   28.5123    8.8424 F   0  0  0  0  0  0  0  0  0  0  0  0
   36.5201   28.5394   11.1012 F   0  0  0  0  0  0  0  0  0  0  0  0
   37.0238   26.6779   10.0114 F   0  0  0  0  0  0  0  0  0  0  0  0
   39.5855   27.5816   10.8242 C   0  0  0  0  0  0  0  0  0  0  0  0
   40.8024   28.1321   11.6800 C   0  0  0  0  0  0  0  0  0  0  0  0
   41.8446   28.7991   10.7520 C   0  0  0  0  0  0  0  0  0  0  0  0
   40.2616   29.1532   12.7140 C   0  0  0  0  0  0  0  0  0  0  0  0
   41.5411   26.9649   12.4266 C   0  0  0  0  0  0  0  0  0  0  0  0
   41.3272   26.7257   13.8136 C   0  0  0  0  0  0  0  0  0  0  0  0
   41.9963   25.7090   14.4956 C   0  0  0  0  0  0  0  0  0  0  0  0
   42.8730   24.8728   13.8204 C   0  0  0  0  0  0  0  0  0  0  0  0
   43.0596   25.0247   12.4516 C   0  0  0  0  0  0  0  0  0  0  0  0
   42.3877   26.0376   11.7348 C   0  0  0  0  0  0  0  0  0  0  0  0
   41.7840   25.5306   15.8231 F   0  0  0  0  0  0  0  0  0  0  0  0
   42.5266   26.1154   10.3397 O   0  0  0  0  0  0  0  0  0  0  0  0
   43.7637   26.1686    9.6355 C   0  0  0  0  0  0  0  0  0  0  0  0
  1  2  1  0  0  0
  2  3  2  0  0  0
  3  4  1  0  0  0
  4  5  2  0  0  0
  5  6  1  0  0  0
  6  7  2  0  0  0
  7  8  1  0  0  0
  8  9  1  0  0  0
  9 10  2  0  0  0
  8 11  1  0  0  0
 11 12  2  0  0  0
 12 13  1  0  0  0
 13 14  2  0  0  0
 14 15  1  0  0  0
 15 16  2  0  0  0
 15 17  1  0  0  0
 17 18  2  0  0  0
 17 19  1  0  0  0
 19 20  1  0  0  0
 20 21  1  0  0  0
 21 22  1  0  0  0
 22 23  1  0  0  0
 23 24  1  0  0  0
 24 25  2  0  0  0
 24 26  1  0  0  0
  4 29  1  0  0  0
 29 31  1  0  0  0
 31 32  1  0  0  0
 32 39  1  0  0  0
 39 40  1  0  0  0
 40 41  1  0  0  0
 40 42  1  0  0  0
 40 43  1  0  0  0
 43 44  2  0  0  0
 44 45  1  0  0  0
 45 46  2  0  0  0
 46 47  1  0  0  0
 47 48  2  0  0  0
 48 50  1  0  0  0
 50 51  1  0  0  0
 45 49  1  0  0  0
 32 35  1  0  0  0
 35 36  1  0  0  0
 35 37  1  0  0  0
 35 38  1  0  0  0
 32 33  1  0  0  0
 10  2  1  0  0  0
  9  5  1  0  0  0
 16 11  1  0  0  0
 23 19  1  0  0  0
 48 43  1  0  0  0
 26 27  1  0  0  0
 26 28  1  0  0  0
 29 30  1  0  0  0
 33 34  1  0  0  0
M  END
> <minimizedAffinity>
-9.72651

$$$$
Ligand2


 51 55  0  0  0  0  0  0  0  0999 V2000
   41.1551   31.3484    5.6018 C   0  0  0  0  0  0  0  0  0  0  0  0
   40.0467   31.8089    6.5015 C   0  0  0  0  0  0  0  0  0  0  0  0
   39.6378   31.0041    7.5950 C   0  0  0  0  0  0  0  0  0  0  0  0
   38.5634   31.3989    8.4309 C   0  0  0  0  0  0  0  0  0  0  0  0
   37.9234   32.6020    8.1081 C   0  0  0  0  0  0  0  0  0  0  0  0
   36.8233   33.2428    8.6482 C   0  0  0  0  0  0  0  0  0  0  0  0
   36.5702   34.3542    7.9173 N   0  0  0  0  0  0  0  0  0  0  0  0
   37.4787   34.4371    6.9517 N   0  0  0  0  0  0  0  0  0  0  0  0
   38.3084   33.3776    7.0485 C   0  0  0  0  0  0  0  0  0  0  0  0
   39.3554   33.0011    6.2057 C   0  0  0  0  0  0  0  0  0  0  0  0
   37.4988   35.4879    5.9727 C   0  0  0  0  0  0  0  0  0  0  0  0
   38.3280   36.6044    6.1410 C   0  0  0  0  0  0  0  0  0  0  0  0
   38.3385   37.6185    5.1843 C   0  0  0  0  0  0  0  0  0  0  0  0
   37.5164   37.5363    4.0570 C   0  0  0  0  0  0  0  0  0  0  0  0
   36.6562   36.4377    3.8753 C   0  0  0  0  0  0  0  0  0  0  0  0
   36.6579   35.4176    4.8504 C   0  0  0  0  0  0  0  0  0  0  0  0
   35.7634   36.2987    2.6894 C   0  0  0  0  0  0  0  0  0  0  0  0
   36.1662   36.7436    1.5806 O   0  0  0  0  0  0  0  0  0  0  0  0
   34.5081   35.5852    2.7226 N   0  0  0  0  0  0  0  0  0  0  0  0
   34.1824   34.6192    1.6816 C   0  0  0  0  0  0  0  0  0  0  0  0
   32.7551   34.1742    1.9567 C   0  0  0  0  0  0  0  0  0  0  0  0
   32.1471   35.2784    2.8120 C   0  0  0  0  0  0  0  0  0  0  0  0
   33.3326   35.9383    3.5193 C   0  0  0  0  0  0  0  0  0  0  0  0
   33.1373   37.4307    3.6246 C   0  0  0  0  0  0  0  0  0  0  0  0
   33.6773   38.0747    4.5647 O   0  0  0  0  0  0  0  0  0  0  0  0
   32.3998   38.1306    2.6212 N   0  0  0  0  0  0  0  0  0  0  0  0
   31.9340   37.6177    1.8405 H   0  0  0  0  0  0  0  0  0  0  0  0
   32.2982   39.1682    2.6746 H   0  0  0  0  0  0  0  0  0  0  0  0
   38.0968   30.5958    9.5345 N   0  0  0  0  0  0  0  0  0  0  0  0
   37.1396   30.7783    9.9118 H   0  0  0  0  0  0  0  0  0  0  0  0
   38.8481   29.5093   10.1734 C   0  0  0  0  0  0  0  0  0  0  0  0
   38.5086   28.1005    9.5804 C   0  0  0  0  0  0  0  0  0  0  0  0
   38.6714   28.1537    8.1825 O   0  0  0  0  0  0  0  0  0  0  0  0
   37.9453   28.7180    7.8067 H   0  0  0  0  0  0  0  0  0  0  0  0
   37.0210   27.7795    9.9400 C   0  0  0  0  0  0  0  0  0  0  0  0
   36.1788   28.1344    8.8996 F   0  0  0  0  0  0  0  0  0  0  0  0
   36.6304   28.4313   11.0933 F   0  0  0  0  0  0  0  0  0  0  0  0
   36.8555   26.4244   10.1828 F   0  0  0  0  0  0  0  0  0  0  0  0
   39.5402   27.0648   10.1734 C   0  0  0  0  0  0  0  0  0  0  0  0
   41.1106   27.1468    9.9643 C   0  0  0  0  0  0  0  0  0  0  0  0
   41.7149   25.7237    9.9214 C   0  0  0  0  0  0  0  0  0  0  0  0
   41.3973   27.9003    8.6399 C   0  0  0  0  0  0  0  0  0  0  0  0
   41.8005   27.8967   11.1590 C   0  0  0  0  0  0  0  0  0  0  0  0
   42.4848   29.1289   10.9586 C   0  0  0  0  0  0  0  0  0  0  0  0
   43.1246   29.7928   12.0058 C   0  0  0  0  0  0  0  0  0  0  0  0
   43.0789   29.2775   13.2926 C   0  0  0  0  0  0  0  0  0  0  0  0
   42.3633   28.1138   13.5479 C   0  0  0  0  0  0  0  0  0  0  0  0
   41.6979   27.4277   12.5098 C   0  0  0  0  0  0  0  0  0  0  0  0
   43.7879   30.9516   11.7680 F   0  0  0  0  0  0  0  0  0  0  0  0
   40.9111   26.3036   12.8079 O   0  0  0  0  0  0  0  0  0  0  0  0
   41.3604   25.1419   13.4992 C   0  0  0  0  0  0  0  0  0  0  0  0
  1  2  1  0  0  0
  2  3  2  0  0  0
  3  4  1  0  0  0
  4  5  2  0  0  0
  5  6  1  0  0  0
  6  7  2  0  0  0
  7  8  1  0  0  0
  8  9  1  0  0  0
  9 10  2  0  0  0
  8 11  1  0  0  0
 11 12  2  0  0  0
 12 13  1  0  0  0
 13 14  2  0  0  0
 14 15  1  0  0  0
 15 16  2  0  0  0
 15 17  1  0  0  0
 17 18  2  0  0  0
 17 19  1  0  0  0
 19 20  1  0  0  0
 20 21  1  0  0  0
 21 22  1  0  0  0
 22 23  1  0  0  0
 23 24  1  0  0  0
 24 25  2  0  0  0
 24 26  1  0  0  0
  4 29  1  0  0  0
 29 31  1  0  0  0
 31 32  1  0  0  0
 32 39  1  0  0  0
 39 40  1  0  0  0
 40 41  1  0  0  0
 40 42  1  0  0  0
 40 43  1  0  0  0
 43 44  2  0  0  0
 44 45  1  0  0  0
 45 46  2  0  0  0
 46 47  1  0  0  0
 47 48  2  0  0  0
 48 50  1  0  0  0
 50 51  1  0  0  0
 45 49  1  0  0  0
 32 35  1  0  0  0
 35 36  1  0  0  0
 35 37  1  0  0  0
 35 38  1  0  0  0
 32 33  1  0  0  0
 10  2  1  0  0  0
  9  5  1  0  0  0
 16 11  1  0  0  0
 23 19  1  0  0  0
 48 43  1  0  0  0
 26 27  1  0  0  0
 26 28  1  0  0  0
 29 30  1  0  0  0
 33 34  1  0  0  0
M  END
> <minimizedAffinity>
-9.44374

$$$$
Ligand3


 29 31  0  0  0  0  0  0  0  0999 V2000
   40.1810   29.3832    9.6717 C   0  0  0  0  0  0  0  0  0  0  0  0
   39.2956   28.3331    9.8983 C   0  0  0  0  0  0  0  0  0  0  0  0
   39.6652   27.6273   10.9917 N   0  0  0  0  0  0  0  0  0  0  0  0
   40.7821   28.2210   11.4607 C   0  0  0  0  0  0  0  0  0  0  0  0
   41.1211   29.2946   10.6798 C   0  0  0  0  0  0  0  0  0  0  0  0
   42.2174   30.1004   10.9655 C   0  0  0  0  0  0  0  0  0  0  0  0
   43.0335   29.7825   12.0795 C   0  0  0  0  0  0  0  0  0  0  0  0
   42.6764   28.6531   12.8775 C   0  0  0  0  0  0  0  0  0  0  0  0
   41.5447   27.8574   12.5780 C   0  0  0  0  0  0  0  0  0  0  0  0
   38.0745   28.0283    9.0902 C   0  0  0  0  0  0  0  0  0  0  0  0
   39.1727   26.7928   11.3790 H   0  0  0  0  0  0  0  0  0  0  0  0
   38.4144   31.7982    9.8907 C   0  0  0  0  0  0  0  0  0  0  0  0
   39.2742   31.5263    8.6839 C   0  0  0  0  0  0  0  0  0  0  0  0
   39.2309   32.4159    7.5987 C   0  0  0  0  0  0  0  0  0  0  0  0
   40.0117   32.2086    6.5063 N   0  0  0  0  0  0  0  0  0  0  0  0
   40.8480   31.1430    6.4174 C   0  0  0  0  0  0  0  0  0  0  0  0
   40.9144   30.2171    7.4584 C   0  0  0  0  0  0  0  0  0  0  0  0
   40.1144   30.3919    8.5954 C   0  0  0  0  0  0  0  0  0  0  0  0
   41.6113   30.9759    5.3103 F   0  0  0  0  0  0  0  0  0  0  0  0
   44.2602   30.6663   12.3876 C   0  0  0  0  0  0  0  0  0  0  0  0
   44.2350   32.0254   11.6471 C   0  0  0  0  0  0  0  0  0  0  0  0
   45.5468   29.9251   11.9641 C   0  0  0  0  0  0  0  0  0  0  0  0
   44.3134   30.9609   13.9031 C   0  0  0  0  0  0  0  0  0  0  0  0
   41.1643   26.7351   13.3968 N   0  0  0  0  0  0  0  0  0  0  0  0
   40.3338   26.8105   14.0233 H   0  0  0  0  0  0  0  0  0  0  0  0
   41.9441   25.1851   13.3433 S   0  0  0  0  0  0  0  0  0  0  0  0
   42.7333   24.9944   14.6074 O   0  0  0  0  0  0  0  0  0  0  0  0
   40.9156   24.0925   13.2522 O   0  0  0  0  0  0  0  0  0  0  0  0
   43.0535   25.1064   11.9535 C   0  0  0  0  0  0  0  0  0  0  0  0
 12 13  1  0  0  0
 13 14  2  0  0  0
 14 15  1  0  0  0
 15 16  2  0  0  0
 16 17  1  0  0  0
 17 18  2  0  0  0
 18  1  1  0  0  0
  1  2  2  0  0  0
  2  3  1  0  0  0
  3  4  1  0  0  0
  4  5  2  0  0  0
  5  6  1  0  0  0
  6  7  2  0  0  0
  7  8  1  0  0  0
  8  9  2  0  0  0
  9 24  1  0  0  0
 24 26  1  0  0  0
 26 27  2  0  0  0
 26 28  2  0  0  0
 26 29  1  0  0  0
  7 20  1  0  0  0
 20 21  1  0  0  0
 20 22  1  0  0  0
 20 23  1  0  0  0
  2 10  1  0  0  0
 16 19  1  0  0  0
 18 13  1  0  0  0
  5  1  1  0  0  0
  9  4  1  0  0  0
  3 11  1  0  0  0
 24 25  1  0  0  0
M  END
> <minimizedAffinity>
-8.08154

$$$$
Ligand3


 29 31  0  0  0  0  0  0  0  0999 V2000
   40.2410   29.2099    9.7640 C   0  0  0  0  0  0  0  0  0  0  0  0
   39.7475   27.9208    9.5838 C   0  0  0  0  0  0  0  0  0  0  0  0
   40.5300   27.0190   10.2200 N   0  0  0  0  0  0  0  0  0  0  0  0
   41.5199   27.7269   10.8020 C   0  0  0  0  0  0  0  0  0  0  0  0
   41.3712   29.0644   10.5446 C   0  0  0  0  0  0  0  0  0  0  0  0
   42.2433   30.0180   11.0574 C   0  0  0  0  0  0  0  0  0  0  0  0
   43.3434   29.5927   11.8430 C   0  0  0  0  0  0  0  0  0  0  0  0
   43.4941   28.1947   12.0929 C   0  0  0  0  0  0  0  0  0  0  0  0
   42.5831   27.2430   11.5752 C   0  0  0  0  0  0  0  0  0  0  0  0
   38.5056   27.5561    8.8343 C   0  0  0  0  0  0  0  0  0  0  0  0
   40.3819   25.9863   10.2436 H   0  0  0  0  0  0  0  0  0  0  0  0
   40.8381   30.1932    6.9932 C   0  0  0  0  0  0  0  0  0  0  0  0
   39.9507   30.9462    7.9496 C   0  0  0  0  0  0  0  0  0  0  0  0
   39.4010   32.1746    7.5499 C   0  0  0  0  0  0  0  0  0  0  0  0
   38.5792   32.8653    8.3827 N   0  0  0  0  0  0  0  0  0  0  0  0
   38.2669   32.4060    9.6214 C   0  0  0  0  0  0  0  0  0  0  0  0
   38.8025   31.2013   10.0763 C   0  0  0  0  0  0  0  0  0  0  0  0
   39.6638   30.4679    9.2495 C   0  0  0  0  0  0  0  0  0  0  0  0
   37.4408   33.1259   10.4186 F   0  0  0  0  0  0  0  0  0  0  0  0
   44.3215   30.6489   12.3987 C   0  0  0  0  0  0  0  0  0  0  0  0
   44.2336   32.0087   11.6643 C   0  0  0  0  0  0  0  0  0  0  0  0
   45.7697   30.1324   12.2580 C   0  0  0  0  0  0  0  0  0  0  0  0
   44.0102   30.9028   13.8903 C   0  0  0  0  0  0  0  0  0  0  0  0
   42.7148   25.8351   11.8488 N   0  0  0  0  0  0  0  0  0  0  0  0
   43.1528   25.2094   11.1384 H   0  0  0  0  0  0  0  0  0  0  0  0
   42.2810   25.0939   13.3574 S   0  0  0  0  0  0  0  0  0  0  0  0
   41.2410   24.0406   13.0998 O   0  0  0  0  0  0  0  0  0  0  0  0
   43.4840   24.4372   13.9749 O   0  0  0  0  0  0  0  0  0  0  0  0
   41.6056   26.3124   14.4654 C   0  0  0  0  0  0  0  0  0  0  0  0
 12 13  1  0  0  0
 13 14  2  0  0  0
 14 15  1  0  0  0
 15 16  2  0  0  0
 16 17  1  0  0  0
 17 18  2  0  0  0
 18  1  1  0  0  0
  1  2  2  0  0  0
  2  3  1  0  0  0
  3  4  1  0  0  0
  4  5  2  0  0  0
  5  6  1  0  0  0
  6  7  2  0  0  0
  7  8  1  0  0  0
  8  9  2  0  0  0
  9 24  1  0  0  0
 24 26  1  0  0  0
 26 27  2  0  0  0
 26 28  2  0  0  0
 26 29  1  0  0  0
  7 20  1  0  0  0
 20 21  1  0  0  0
 20 22  1  0  0  0
 20 23  1  0  0  0
  2 10  1  0  0  0
 16 19  1  0  0  0
 18 13  1  0  0  0
  5  1  1  0  0  0
  9  4  1  0  0  0
  3 11  1  0  0  0
 24 25  1  0  0  0
M  END
> <minimizedAffinity>
-7.91573

$$$$
Ligand3


 29 31  0  0  0  0  0  0  0  0999 V2000
   40.4425   29.2766    9.6537 C   0  0  0  0  0  0  0  0  0  0  0  0
   39.4353   28.3903   10.0250 C   0  0  0  0  0  0  0  0  0  0  0  0
   39.6612   27.9080   11.2686 N   0  0  0  0  0  0  0  0  0  0  0  0
   40.8076   28.4807   11.6899 C   0  0  0  0  0  0  0  0  0  0  0  0
   41.3073   29.3210   10.7298 C   0  0  0  0  0  0  0  0  0  0  0  0
   42.4673   30.0617   10.9260 C   0  0  0  0  0  0  0  0  0  0  0  0
   43.1778   29.9182   12.1438 C   0  0  0  0  0  0  0  0  0  0  0  0
   42.6530   29.0293   13.1307 C   0  0  0  0  0  0  0  0  0  0  0  0
   41.4598   28.2987   12.9161 C   0  0  0  0  0  0  0  0  0  0  0  0
   38.2367   28.0341    9.2041 C   0  0  0  0  0  0  0  0  0  0  0  0
   39.0583   27.2287   11.7825 H   0  0  0  0  0  0  0  0  0  0  0  0
   42.1263   28.2845    7.3774 C   0  0  0  0  0  0  0  0  0  0  0  0
   41.3518   29.5751    7.3138 C   0  0  0  0  0  0  0  0  0  0  0  0
   41.4394   30.3693    6.1595 C   0  0  0  0  0  0  0  0  0  0  0  0
   40.7348   31.5270    6.0646 N   0  0  0  0  0  0  0  0  0  0  0  0
   39.9347   31.9612    7.0717 C   0  0  0  0  0  0  0  0  0  0  0  0
   39.8277   31.2210    8.2489 C   0  0  0  0  0  0  0  0  0  0  0  0
   40.5496   30.0280    8.3871 C   0  0  0  0  0  0  0  0  0  0  0  0
   39.2473   33.1209    6.9340 F   0  0  0  0  0  0  0  0  0  0  0  0
   44.4745   30.7273   12.3558 C   0  0  0  0  0  0  0  0  0  0  0  0
   45.7438   29.9834   11.8746 C   0  0  0  0  0  0  0  0  0  0  0  0
   44.6504   31.0312   13.8594 C   0  0  0  0  0  0  0  0  0  0  0  0
   44.3856   32.0550   11.5713 C   0  0  0  0  0  0  0  0  0  0  0  0
   40.9116   27.4233   13.9200 N   0  0  0  0  0  0  0  0  0  0  0  0
   40.1395   27.7613   14.5345 H   0  0  0  0  0  0  0  0  0  0  0  0
   41.3809   25.7645   14.1235 S   0  0  0  0  0  0  0  0  0  0  0  0
   42.8597   25.7063   14.3826 O   0  0  0  0  0  0  0  0  0  0  0  0
   40.6650   25.1662   15.3022 O   0  0  0  0  0  0  0  0  0  0  0  0
   41.0176   24.8405   12.6461 C   0  0  0  0  0  0  0  0  0  0  0  0
 12 13  1  0  0  0
 13 14  2  0  0  0
 14 15  1  0  0  0
 15 16  2  0  0  0
 16 17  1  0  0  0
 17 18  2  0  0  0
 18  1  1  0  0  0
  1  2  2  0  0  0
  2  3  1  0  0  0
  3  4  1  0  0  0
  4  5  2  0  0  0
  5  6  1  0  0  0
  6  7  2  0  0  0
  7  8  1  0  0  0
  8  9  2  0  0  0
  9 24  1  0  0  0
 24 26  1  0  0  0
 26 27  2  0  0  0
 26 28  2  0  0  0
 26 29  1  0  0  0
  7 20  1  0  0  0
 20 21  1  0  0  0
 20 22  1  0  0  0
 20 23  1  0  0  0
  2 10  1  0  0  0
 16 19  1  0  0  0
 18 13  1  0  0  0
  5  1  1  0  0  0
  9  4  1  0  0  0
  3 11  1  0  0  0
 24 25  1  0  0  0
M  END
> <minimizedAffinity>
-7.60166

$$$$
Ligand4


 33 37  0  0  0  0  0  0  0  0999 V2000
   39.4529   29.7144   10.4856 C   0  0  0  0  0  0  0  0  0  0  0  0
   39.8690   29.4721   11.9361 C   0  0  0  0  0  0  0  0  0  0  0  0
   40.2991   27.9962   11.9914 C   0  0  0  0  0  0  0  0  0  0  0  0
   40.2549   27.4579   10.5402 C   0  0  0  0  0  0  0  0  0  0  0  0
   41.3478   26.5989   10.3161 O   0  0  0  0  0  0  0  0  0  0  0  0
   40.3226   28.7570    9.6673 C   0  0  0  0  0  0  0  0  0  0  0  0
   41.8124   29.2122    9.5587 C   0  0  0  0  0  0  0  0  0  0  0  0
   39.7051   28.6600    8.2538 C   0  0  0  0  0  0  0  0  0  0  0  0
   39.4952   30.0390    7.5483 C   0  0  0  0  0  0  0  0  0  0  0  0
   39.1120   31.2197    8.4754 C   0  0  0  0  0  0  0  0  0  0  0  0
   38.5555   32.3651    7.9610 C   0  0  0  0  0  0  0  0  0  0  0  0
   38.3723   32.5848    6.4583 C   0  0  0  0  0  0  0  0  0  0  0  0
   37.1942   33.5096    6.1445 C   0  0  0  0  0  0  0  0  0  0  0  0
   37.2618   34.7482    6.9771 C   0  0  0  0  0  0  0  0  0  0  0  0
   36.8608   35.8481    6.5127 O   0  0  0  0  0  0  0  0  0  0  0  0
   37.7098   34.6588    8.3703 C   0  0  0  0  0  0  0  0  0  0  0  0
   38.2506   33.5309    8.8587 C   0  0  0  0  0  0  0  0  0  0  0  0
   38.6085   33.4814   10.3169 C   0  0  0  0  0  0  0  0  0  0  0  0
   38.5574   32.0469   10.8164 C   0  0  0  0  0  0  0  0  0  0  0  0
   39.4895   31.1652    9.9686 C   0  0  0  0  0  0  0  0  0  0  0  0
   41.3125   26.3158    9.3644 H   0  0  0  0  0  0  0  0  0  0  0  0
   40.6429   30.3574    6.5912 C   0  0  0  0  0  0  0  0  0  0  0  0
   41.6164   29.4080    6.2250 C   0  0  0  0  0  0  0  0  0  0  0  0
   42.6513   29.7467    5.3502 C   0  0  0  0  0  0  0  0  0  0  0  0
   42.7509   31.0462    4.8156 C   0  0  0  0  0  0  0  0  0  0  0  0
   41.7801   31.9957    5.1903 C   0  0  0  0  0  0  0  0  0  0  0  0
   40.7458   31.6554    6.0650 C   0  0  0  0  0  0  0  0  0  0  0  0
   43.8263   31.3979    3.9058 N   0  0  0  0  0  0  0  0  0  0  0  0
   44.0712   32.8002    3.5465 C   0  0  0  0  0  0  0  0  0  0  0  0
   44.6876   30.3575    3.3301 C   0  0  0  0  0  0  0  0  0  0  0  0
   38.9975   26.6904   10.3567 C   0  0  0  0  0  0  0  0  0  0  0  0
   37.9769   26.0657   10.2095 C   0  0  0  0  0  0  0  0  0  0  0  0
   36.7377   25.3092   10.0351 C   0  0  0  0  0  0  0  0  0  0  0  0
  1  2  1  0  0  0
  2  3  1  0  0  0
  3  4  1  0  0  0
  4  5  1  0  0  0
  4 31  1  0  0  0
 31 32  3  0  0  0
 32 33  1  0  0  0
  4  6  1  0  0  0
  6  7  1  0  0  0
  6  8  1  0  0  0
  8  9  1  0  0  0
  9 10  1  0  0  0
 10 11  2  0  0  0
 11 12  1  0  0  0
 12 13  1  0  0  0
 13 14  1  0  0  0
 14 15  2  0  0  0
 14 16  1  0  0  0
 16 17  2  0  0  0
 17 18  1  0  0  0
 18 19  1  0  0  0
 19 20  1  0  0  0
  9 22  1  0  0  0
 22 23  2  0  0  0
 23 24  1  0  0  0
 24 25  2  0  0  0
 25 26  1  0  0  0
 26 27  2  0  0  0
 25 28  1  0  0  0
 28 29  1  0  0  0
 28 30  1  0  0  0
  6  1  1  0  0  0
 20 10  1  0  0  0
 27 22  1  0  0  0
 20  1  1  0  0  0
 17 11  1  0  0  0
  5 21  1  0  0  0
M  END
> <minimizedAffinity>
0.14810

$$$$
Ligand4


 33 37  0  0  0  0  0  0  0  0999 V2000
   40.3372   29.0939   11.2416 C   0  0  0  0  0  0  0  0  0  0  0  0
   40.7634   29.0787   12.7092 C   0  0  0  0  0  0  0  0  0  0  0  0
   42.2676   29.4006   12.6959 C   0  0  0  0  0  0  0  0  0  0  0  0
   42.6459   29.7328   11.2317 C   0  0  0  0  0  0  0  0  0  0  0  0
   43.5645   30.7996   11.2061 O   0  0  0  0  0  0  0  0  0  0  0  0
   41.2728   30.1061   10.5762 C   0  0  0  0  0  0  0  0  0  0  0  0
   40.9340   31.5889   10.9298 C   0  0  0  0  0  0  0  0  0  0  0  0
   41.1701   29.9004    9.0479 C   0  0  0  0  0  0  0  0  0  0  0  0
   39.7122   29.9650    8.4874 C   0  0  0  0  0  0  0  0  0  0  0  0
   38.6072   29.4008    9.4152 C   0  0  0  0  0  0  0  0  0  0  0  0
   37.3721   29.0680    8.9152 C   0  0  0  0  0  0  0  0  0  0  0  0
   36.9821   29.3199    7.4576 C   0  0  0  0  0  0  0  0  0  0  0  0
   35.9351   28.3238    6.9546 C   0  0  0  0  0  0  0  0  0  0  0  0
   34.8002   28.2213    7.9208 C   0  0  0  0  0  0  0  0  0  0  0  0
   33.6283   28.0214    7.5047 O   0  0  0  0  0  0  0  0  0  0  0  0
   35.0715   28.2604    9.3611 C   0  0  0  0  0  0  0  0  0  0  0  0
   36.2852   28.5864    9.8342 C   0  0  0  0  0  0  0  0  0  0  0  0
   36.5162   28.5231   11.3173 C   0  0  0  0  0  0  0  0  0  0  0  0
   37.9858   28.2623   11.6038 C   0  0  0  0  0  0  0  0  0  0  0  0
   38.8484   29.3464   10.9364 C   0  0  0  0  0  0  0  0  0  0  0  0
   43.7427   31.0151   10.2526 H   0  0  0  0  0  0  0  0  0  0  0  0
   39.3919   31.3477    7.9216 C   0  0  0  0  0  0  0  0  0  0  0  0
   38.5517   32.2658    8.5806 C   0  0  0  0  0  0  0  0  0  0  0  0
   38.2832   33.5173    8.0217 C   0  0  0  0  0  0  0  0  0  0  0  0
   38.8413   33.8920    6.7838 C   0  0  0  0  0  0  0  0  0  0  0  0
   39.6749   32.9682    6.1233 C   0  0  0  0  0  0  0  0  0  0  0  0
   39.9425   31.7171    6.6836 C   0  0  0  0  0  0  0  0  0  0  0  0
   38.5626   35.1932    6.2033 N   0  0  0  0  0  0  0  0  0  0  0  0
   37.8027   35.3048    4.9520 C   0  0  0  0  0  0  0  0  0  0  0  0
   39.0353   36.4195    6.8577 C   0  0  0  0  0  0  0  0  0  0  0  0
   43.2830   28.5380   10.6232 C   0  0  0  0  0  0  0  0  0  0  0  0
   43.7998   27.5663   10.1309 C   0  0  0  0  0  0  0  0  0  0  0  0
   44.4226   26.3857    9.5338 C   0  0  0  0  0  0  0  0  0  0  0  0
  1  2  1  0  0  0
  2  3  1  0  0  0
  3  4  1  0  0  0
  4  5  1  0  0  0
  4 31  1  0  0  0
 31 32  3  0  0  0
 32 33  1  0  0  0
  4  6  1  0  0  0
  6  7  1  0  0  0
  6  8  1  0  0  0
  8  9  1  0  0  0
  9 10  1  0  0  0
 10 11  2  0  0  0
 11 12  1  0  0  0
 12 13  1  0  0  0
 13 14  1  0  0  0
 14 15  2  0  0  0
 14 16  1  0  0  0
 16 17  2  0  0  0
 17 18  1  0  0  0
 18 19  1  0  0  0
 19 20  1  0  0  0
  9 22  1  0  0  0
 22 23  2  0  0  0
 23 24  1  0  0  0
 24 25  2  0  0  0
 25 26  1  0  0  0
 26 27  2  0  0  0
 25 28  1  0  0  0
 28 29  1  0  0  0
 28 30  1  0  0  0
  6  1  1  0  0  0
 20 10  1  0  0  0
 27 22  1  0  0  0
 20  1  1  0  0  0
 17 11  1  0  0  0
  5 21  1  0  0  0
M  END
> <minimizedAffinity>
3.58563

$$$$
Ligand4


 33 37  0  0  0  0  0  0  0  0999 V2000
   42.1589   28.1766   11.3686 C   0  0  0  0  0  0  0  0  0  0  0  0
   42.0663   26.9990   12.3383 C   0  0  0  0  0  0  0  0  0  0  0  0
   42.1646   27.6227   13.7410 C   0  0  0  0  0  0  0  0  0  0  0  0
   42.1702   29.1596   13.5529 C   0  0  0  0  0  0  0  0  0  0  0  0
   41.4048   29.7675   14.5664 O   0  0  0  0  0  0  0  0  0  0  0  0
   41.5463   29.3549   12.1293 C   0  0  0  0  0  0  0  0  0  0  0  0
   39.9911   29.2754   12.2472 C   0  0  0  0  0  0  0  0  0  0  0  0
   41.9448   30.6485   11.3833 C   0  0  0  0  0  0  0  0  0  0  0  0
   41.5775   30.6530    9.8639 C   0  0  0  0  0  0  0  0  0  0  0  0
   41.6789   29.2864    9.1412 C   0  0  0  0  0  0  0  0  0  0  0  0
   41.7403   29.2189    7.7709 C   0  0  0  0  0  0  0  0  0  0  0  0
   41.6158   30.4578    6.8822 C   0  0  0  0  0  0  0  0  0  0  0  0
   42.3593   30.2987    5.5542 C   0  0  0  0  0  0  0  0  0  0  0  0
   42.0076   28.9989    4.9072 C   0  0  0  0  0  0  0  0  0  0  0  0
   41.9468   28.9104    3.6522 O   0  0  0  0  0  0  0  0  0  0  0  0
   41.8260   27.8042    5.7374 C   0  0  0  0  0  0  0  0  0  0  0  0
   41.7693   27.8867    7.0765 C   0  0  0  0  0  0  0  0  0  0  0  0
   41.6680   26.6142    7.8686 C   0  0  0  0  0  0  0  0  0  0  0  0
   42.2663   26.8136    9.2514 C   0  0  0  0  0  0  0  0  0  0  0  0
   41.5661   27.9853    9.9595 C   0  0  0  0  0  0  0  0  0  0  0  0
   41.3910   30.7439   14.3827 H   0  0  0  0  0  0  0  0  0  0  0  0
   40.2612   31.3859    9.6094 C   0  0  0  0  0  0  0  0  0  0  0  0
   39.4366   31.8564   10.6496 C   0  0  0  0  0  0  0  0  0  0  0  0
   38.2384   32.5168   10.3684 C   0  0  0  0  0  0  0  0  0  0  0  0
   37.8215   32.7253    9.0391 C   0  0  0  0  0  0  0  0  0  0  0  0
   38.6447   32.2463    8.0012 C   0  0  0  0  0  0  0  0  0  0  0  0
   39.8427   31.5863    8.2839 C   0  0  0  0  0  0  0  0  0  0  0  0
   36.5763   33.4123    8.7471 N   0  0  0  0  0  0  0  0  0  0  0  0
   36.3363   34.7696    9.2529 C   0  0  0  0  0  0  0  0  0  0  0  0
   35.5360   32.7618    7.9407 C   0  0  0  0  0  0  0  0  0  0  0  0
   43.5695   29.6450   13.6539 C   0  0  0  0  0  0  0  0  0  0  0  0
   44.7053   30.0407   13.7375 C   0  0  0  0  0  0  0  0  0  0  0  0
   46.0831   30.5190   13.8433 C   0  0  0  0  0  0  0  0  0  0  0  0
  1  2  1  0  0  0
  2  3  1  0  0  0
  3  4  1  0  0  0
  4  5  1  0  0  0
  4 31  1  0  0  0
 31 32  3  0  0  0
 32 33  1  0  0  0
  4  6  1  0  0  0
  6  7  1  0  0  0
  6  8  1  0  0  0
  8  9  1  0  0  0
  9 10  1  0  0  0
 10 11  2  0  0  0
 11 12  1  0  0  0
 12 13  1  0  0  0
 13 14  1  0  0  0
 14 15  2  0  0  0
 14 16  1  0  0  0
 16 17  2  0  0  0
 17 18  1  0  0  0
 18 19  1  0  0  0
 19 20  1  0  0  0
  9 22  1  0  0  0
 22 23  2  0  0  0
 23 24  1  0  0  0
 24 25  2  0  0  0
 25 26  1  0  0  0
 26 27  2  0  0  0
 25 28  1  0  0  0
 28 29  1  0  0  0
 28 30  1  0  0  0
  6  1  1  0  0  0
 20 10  1  0  0  0
 27 22  1  0  0  0
 20  1  1  0  0  0
 17 11  1  0  0  0
  5 21  1  0  0  0
M  END
> <minimizedAffinity>
4.94614

$$$$
Ligand5


 38 42  0  0  0  0  0  0  0  0999 V2000
   44.8356   26.2062    9.5374 C   0  0  0  0  0  0  0  0  0  0  0  0
   43.3064   26.1402    9.6598 C   0  0  0  0  0  0  0  0  0  0  0  0
   42.6150   26.9329    8.5210 C   0  0  0  0  0  0  0  0  0  0  0  0
   41.7412   27.9548    9.2390 C   0  0  0  0  0  0  0  0  0  0  0  0
   40.5549   28.5946    8.4791 C   0  0  0  0  0  0  0  0  0  0  0  0
   41.0430   29.2085    7.1479 C   0  0  0  0  0  0  0  0  0  0  0  0
   39.9121   29.9107    6.3976 C   0  0  0  0  0  0  0  0  0  0  0  0
   40.4337   30.4817    5.2460 F   0  0  0  0  0  0  0  0  0  0  0  0
   39.2555   30.9353    7.2995 C   0  0  0  0  0  0  0  0  0  0  0  0
   39.1305   32.2136    6.8978 C   0  0  0  0  0  0  0  0  0  0  0  0
   38.5375   33.2240    7.7717 C   0  0  0  0  0  0  0  0  0  0  0  0
   38.4074   34.4105    7.3711 O   0  0  0  0  0  0  0  0  0  0  0  0
   38.1084   32.8527    9.1159 C   0  0  0  0  0  0  0  0  0  0  0  0
   38.2119   31.5923    9.5353 C   0  0  0  0  0  0  0  0  0  0  0  0
   38.7133   30.4446    8.6559 C   0  0  0  0  0  0  0  0  0  0  0  0
   37.4808   29.5505    8.3630 C   0  0  0  0  0  0  0  0  0  0  0  0
   39.8999   29.6963    9.3954 C   0  0  0  0  0  0  0  0  0  0  0  0
   40.8725   30.6666    9.6227 F   0  0  0  0  0  0  0  0  0  0  0  0
   39.5398   29.1295   10.8194 C   0  0  0  0  0  0  0  0  0  0  0  0
   38.3879   28.3297   10.7832 O   0  0  0  0  0  0  0  0  0  0  0  0
   40.7150   28.3498   11.4799 C   0  0  0  0  0  0  0  0  0  0  0  0
   41.3309   27.2660   10.5482 C   0  0  0  0  0  0  0  0  0  0  0  0
   40.3016   26.1049   10.3259 C   0  0  0  0  0  0  0  0  0  0  0  0
   42.7154   26.6887   11.0130 C   0  0  0  0  0  0  0  0  0  0  0  0
   38.0508   28.2573   11.7147 H   0  0  0  0  0  0  0  0  0  0  0  0
   42.5741   25.6386   12.1212 C   0  0  0  0  0  0  0  0  0  0  0  0
   43.4840   24.8454   12.3062 O   0  0  0  0  0  0  0  0  0  0  0  0
   41.0495   25.4076   13.0656 S   0  0  0  0  0  0  0  0  0  0  0  0
   41.8589   25.2745   14.6903 C   0  0  0  0  0  0  0  0  0  0  0  0
   41.2242   26.0940   15.6051 F   0  0  0  0  0  0  0  0  0  0  0  0
   43.5046   27.7974   11.4927 O   0  0  0  0  0  0  0  0  0  0  0  0
   43.2733   28.5989   12.6220 C   0  0  0  0  0  0  0  0  0  0  0  0
   42.5599   28.1980   13.5799 O   0  0  0  0  0  0  0  0  0  0  0  0
   43.8830   29.9291   12.6841 C   0  0  0  0  0  0  0  0  0  0  0  0
   43.9561   30.8302   11.6410 C   0  0  0  0  0  0  0  0  0  0  0  0
   44.6102   31.9318   12.1499 C   0  0  0  0  0  0  0  0  0  0  0  0
   44.8946   31.6344   13.4678 C   0  0  0  0  0  0  0  0  0  0  0  0
   44.4485   30.4331   13.7566 O   0  0  0  0  0  0  0  0  0  0  0  0
  1  2  1  0  0  0
  2  3  1  0  0  0
  3  4  1  0  0  0
  4  5  1  0  0  0
  5  6  1  0  0  0
  6  7  1  0  0  0
  7  8  1  0  0  0
  7  9  1  0  0  0
  9 10  2  0  0  0
 10 11  1  0  0  0
 11 12  2  0  0  0
 11 13  1  0  0  0
 13 14  2  0  0  0
 14 15  1  0  0  0
 15 16  1  0  0  0
 15 17  1  0  0  0
 17 18  1  0  0  0
 17 19  1  0  0  0
 19 20  1  0  0  0
 19 21  1  0  0  0
 21 22  1  0  0  0
 22 23  1  0  0  0
 22 24  1  0  0  0
 24 31  1  0  0  0
 31 32  1  0  0  0
 32 33  2  0  0  0
 32 34  1  0  0  0
 34 35  2  0  0  0
 35 36  1  0  0  0
 36 37  2  0  0  0
 37 38  1  0  0  0
 24 26  1  0  0  0
 26 27  2  0  0  0
 26 28  1  0  0  0
 28 29  1  0  0  0
 29 30  1  0  0  0
 24  2  1  0  0  0
 38 34  1  0  0  0
 22  4  1  0  0  0
 17  5  1  0  0  0
 15  9  1  0  0  0
 20 25  1  0  0  0
M  END
> <minimizedAffinity>
-9.94008

$$$$
Ligand5


 38 42  0  0  0  0  0  0  0  0999 V2000
   40.3989   29.4033    4.9759 C   0  0  0  0  0  0  0  0  0  0  0  0
   40.9222   30.0579    6.2625 C   0  0  0  0  0  0  0  0  0  0  0  0
   41.9488   29.1457    6.9819 C   0  0  0  0  0  0  0  0  0  0  0  0
   41.3694   28.9397    8.3767 C   0  0  0  0  0  0  0  0  0  0  0  0
   42.3104   28.4988    9.5231 C   0  0  0  0  0  0  0  0  0  0  0  0
   43.0867   27.2263    9.1165 C   0  0  0  0  0  0  0  0  0  0  0  0
   43.9786   26.7187   10.2486 C   0  0  0  0  0  0  0  0  0  0  0  0
   44.5987   25.5497    9.8323 F   0  0  0  0  0  0  0  0  0  0  0  0
   43.1525   26.5153   11.5018 C   0  0  0  0  0  0  0  0  0  0  0  0
   43.1690   25.3317   12.1420 C   0  0  0  0  0  0  0  0  0  0  0  0
   42.3460   25.1046   13.3284 C   0  0  0  0  0  0  0  0  0  0  0  0
   42.3910   23.9987   13.9284 O   0  0  0  0  0  0  0  0  0  0  0  0
   41.4624   26.1628   13.8064 C   0  0  0  0  0  0  0  0  0  0  0  0
   41.4338   27.3472   13.1970 C   0  0  0  0  0  0  0  0  0  0  0  0
   42.3391   27.7172   12.0199 C   0  0  0  0  0  0  0  0  0  0  0  0
   43.3515   28.7598   12.5604 C   0  0  0  0  0  0  0  0  0  0  0  0
   41.4481   28.2379   10.8157 C   0  0  0  0  0  0  0  0  0  0  0  0
   40.5735   27.1962   10.5173 F   0  0  0  0  0  0  0  0  0  0  0  0
   40.5262   29.4675   11.1577 C   0  0  0  0  0  0  0  0  0  0  0  0
   41.2557   30.5186   11.7329 O   0  0  0  0  0  0  0  0  0  0  0  0
   39.7176   29.9827    9.9305 C   0  0  0  0  0  0  0  0  0  0  0  0
   40.6036   30.2360    8.6763 C   0  0  0  0  0  0  0  0  0  0  0  0
   41.5534   31.4567    8.9307 C   0  0  0  0  0  0  0  0  0  0  0  0
   39.8208   30.4232    7.3278 C   0  0  0  0  0  0  0  0  0  0  0  0
   40.6040   31.1144   12.1878 H   0  0  0  0  0  0  0  0  0  0  0  0
   39.2298   31.8301    7.1797 C   0  0  0  0  0  0  0  0  0  0  0  0
   39.5148   32.4924    6.1940 O   0  0  0  0  0  0  0  0  0  0  0  0
   38.2574   32.6279    8.4788 S   0  0  0  0  0  0  0  0  0  0  0  0
   37.6132   33.9677    7.4287 C   0  0  0  0  0  0  0  0  0  0  0  0
   37.3449   35.0852    8.1970 F   0  0  0  0  0  0  0  0  0  0  0  0
   38.7591   29.4461    7.3075 O   0  0  0  0  0  0  0  0  0  0  0  0
   37.6733   29.3305    8.1900 C   0  0  0  0  0  0  0  0  0  0  0  0
   36.7571   30.1946    8.2246 O   0  0  0  0  0  0  0  0  0  0  0  0
   37.6073   28.1731    9.0850 C   0  0  0  0  0  0  0  0  0  0  0  0
   36.7918   28.0582   10.1928 C   0  0  0  0  0  0  0  0  0  0  0  0
   37.0666   26.8171   10.7264 C   0  0  0  0  0  0  0  0  0  0  0  0
   38.0301   26.2545    9.9131 C   0  0  0  0  0  0  0  0  0  0  0  0
   38.3319   27.0874    8.9432 O   0  0  0  0  0  0  0  0  0  0  0  0
  1  2  1  0  0  0
  2  3  1  0  0  0
  3  4  1  0  0  0
  4  5  1  0  0  0
  5  6  1  0  0  0
  6  7  1  0  0  0
  7  8  1  0  0  0
  7  9  1  0  0  0
  9 10  2  0  0  0
 10 11  1  0  0  0
 11 12  2  0  0  0
 11 13  1  0  0  0
 13 14  2  0  0  0
 14 15  1  0  0  0
 15 16  1  0  0  0
 15 17  1  0  0  0
 17 18  1  0  0  0
 17 19  1  0  0  0
 19 20  1  0  0  0
 19 21  1  0  0  0
 21 22  1  0  0  0
 22 23  1  0  0  0
 22 24  1  0  0  0
 24 31  1  0  0  0
 31 32  1  0  0  0
 32 33  2  0  0  0
 32 34  1  0  0  0
 34 35  2  0  0  0
 35 36  1  0  0  0
 36 37  2  0  0  0
 37 38  1  0  0  0
 24 26  1  0  0  0
 26 27  2  0  0  0
 26 28  1  0  0  0
 28 29  1  0  0  0
 29 30  1  0  0  0
 24  2  1  0  0  0
 38 34  1  0  0  0
 22  4  1  0  0  0
 17  5  1  0  0  0
 15  9  1  0  0  0
 20 25  1  0  0  0
M  END
> <minimizedAffinity>
-7.31904

$$$$
Ligand5


 38 42  0  0  0  0  0  0  0  0999 V2000
   43.6346   27.6193    8.5055 C   0  0  0  0  0  0  0  0  0  0  0  0
   42.1057   27.5540    8.3788 C   0  0  0  0  0  0  0  0  0  0  0  0
   41.5604   28.7266    7.5237 C   0  0  0  0  0  0  0  0  0  0  0  0
   40.5672   29.4381    8.4352 C   0  0  0  0  0  0  0  0  0  0  0  0
   39.4829   30.3430    7.8030 C   0  0  0  0  0  0  0  0  0  0  0  0
   40.1368   31.3880    6.8716 C   0  0  0  0  0  0  0  0  0  0  0  0
   39.1043   32.3460    6.2790 C   0  0  0  0  0  0  0  0  0  0  0  0
   39.7673   33.2844    5.5017 F   0  0  0  0  0  0  0  0  0  0  0  0
   38.3001   32.9869    7.3912 C   0  0  0  0  0  0  0  0  0  0  0  0
   38.1986   34.3264    7.4715 C   0  0  0  0  0  0  0  0  0  0  0  0
   37.4617   34.9627    8.5616 C   0  0  0  0  0  0  0  0  0  0  0  0
   37.3574   36.2164    8.6087 O   0  0  0  0  0  0  0  0  0  0  0  0
   36.8578   34.1371    9.6022 C   0  0  0  0  0  0  0  0  0  0  0  0
   36.9350   32.8083    9.5415 C   0  0  0  0  0  0  0  0  0  0  0  0
   37.5857   32.0488    8.3832 C   0  0  0  0  0  0  0  0  0  0  0  0
   36.4312   31.3571    7.6133 C   0  0  0  0  0  0  0  0  0  0  0  0
   38.6762   31.0503    8.9569 C   0  0  0  0  0  0  0  0  0  0  0  0
   39.5807   31.8439    9.6577 F   0  0  0  0  0  0  0  0  0  0  0  0
   38.1345   30.0119   10.0089 C   0  0  0  0  0  0  0  0  0  0  0  0
   37.0211   29.3119    9.5211 O   0  0  0  0  0  0  0  0  0  0  0  0
   39.2257   29.0134   10.4969 C   0  0  0  0  0  0  0  0  0  0  0  0
   39.9954   28.3294    9.3299 C   0  0  0  0  0  0  0  0  0  0  0  0
   39.0391   27.3581    8.5559 C   0  0  0  0  0  0  0  0  0  0  0  0
   41.3157   27.5853    9.7412 C   0  0  0  0  0  0  0  0  0  0  0  0
   36.5584   28.9128   10.3042 H   0  0  0  0  0  0  0  0  0  0  0  0
   41.0480   26.2068   10.3568 C   0  0  0  0  0  0  0  0  0  0  0  0
   41.5734   25.2229    9.8593 O   0  0  0  0  0  0  0  0  0  0  0  0
   39.8551   25.9421   11.6897 S   0  0  0  0  0  0  0  0  0  0  0  0
   38.5237   25.3109   10.6211 C   0  0  0  0  0  0  0  0  0  0  0  0
   37.3554   26.0122   10.8545 F   0  0  0  0  0  0  0  0  0  0  0  0
   41.9995   28.4202   10.6991 O   0  0  0  0  0  0  0  0  0  0  0  0
   43.0109   28.0520   11.6006 C   0  0  0  0  0  0  0  0  0  0  0  0
   43.4024   26.8587   11.7006 O   0  0  0  0  0  0  0  0  0  0  0  0
   43.6250   29.0851   12.4376 C   0  0  0  0  0  0  0  0  0  0  0  0
   43.1043   29.5802   13.6162 C   0  0  0  0  0  0  0  0  0  0  0  0
   44.0072   30.5277   14.0495 C   0  0  0  0  0  0  0  0  0  0  0  0
   45.0190   30.5513   13.1104 C   0  0  0  0  0  0  0  0  0  0  0  0
   44.7624   29.6800   12.1614 O   0  0  0  0  0  0  0  0  0  0  0  0
  1  2  1  0  0  0
  2  3  1  0  0  0
  3  4  1  0  0  0
  4  5  1  0  0  0
  5  6  1  0  0  0
  6  7  1  0  0  0
  7  8  1  0  0  0
  7  9  1  0  0  0
  9 10  2  0  0  0
 10 11  1  0  0  0
 11 12  2  0  0  0
 11 13  1  0  0  0
 13 14  2  0  0  0
 14 15  1  0  0  0
 15 16  1  0  0  0
 15 17  1  0  0  0
 17 18  1  0  0  0
 17 19  1  0  0  0
 19 20  1  0  0  0
 19 21  1  0  0  0
 21 22  1  0  0  0
 22 23  1  0  0  0
 22 24  1  0  0  0
 24 31  1  0  0  0
 31 32  1  0  0  0
 32 33  2  0  0  0
 32 34  1  0  0  0
 34 35  2  0  0  0
 35 36  1  0  0  0
 36 37  2  0  0  0
 37 38  1  0  0  0
 24 26  1  0  0  0
 26 27  2  0  0  0
 26 28  1  0  0  0
 28 29  1  0  0  0
 29 30  1  0  0  0
 24  2  1  0  0  0
 38 34  1  0  0  0
 22  4  1  0  0  0
 17  5  1  0  0  0
 15  9  1  0  0  0
 20 25  1  0  0  0
M  END
> <minimizedAffinity>
-6.70492

$$$$
